@<TRIPOS>MOLECULE
DBP
  100   114     1     0     0
SMALL
resp


@<TRIPOS>ATOM
      1 C1           5.4210     5.4370    -0.3890 ca         1 DBP      -0.096941
      2 C2           4.9140     4.7730     0.6580 ca         1 DBP      -0.201183
      3 C3           5.3250     3.4700     0.8790 ca         1 DBP      -0.121503
      4 C4           6.0950     2.7960    -0.0620 cp         1 DBP       0.195266
      5 C5           6.0900     1.3850    -0.0600 cp         1 DBP      -0.260792
      6 C6           7.2850     0.6830    -0.2180 ca         1 DBP       0.169835
      7 C7           8.5260     1.3760    -0.3500 ca         1 DBP      -0.216933
      8 C8           9.7130     0.7070    -0.4680 ca         1 DBP      -0.139202
      9 C9           9.7160    -0.6560    -0.4610 ca         1 DBP      -0.139202
     10 C10          8.5150    -1.3480    -0.3060 ca         1 DBP      -0.216933
     11 C11          7.2670    -0.7410    -0.1690 ca         1 DBP       0.169835
     12 C12          6.0410    -1.4490    -0.0270 cq         1 DBP      -0.260792
     13 C13          6.0230    -2.8320     0.3420 cq         1 DBP       0.195266
     14 C14          6.6030    -3.8140    -0.4260 ca         1 DBP      -0.121503
     15 C15          6.4190    -5.1500     0.0040 ca         1 DBP      -0.201183
     16 C16          5.8480    -5.3810     1.2600 ca         1 DBP      -0.096941
     17 C17          5.4300    -4.4050     2.0340 ca         1 DBP      -0.201183
     18 C18          5.4280    -3.0970     1.5500 ca         1 DBP      -0.121503
     19 C19          4.8560    -0.7200     0.0270 cp         1 DBP       0.049283
     20 C20          3.5370    -1.1390    -0.0110 cq         1 DBP       0.038071
     21 C21          2.8430    -2.4040    -0.0410 ca         1 DBP      -0.178640
     22 C22          1.4800    -2.4400    -0.0600 ca         1 DBP      -0.205024
     23 C23          0.6620    -1.2790     0.0170 ca         1 DBP       0.022737
     24 C24         -0.7210    -1.2370    -0.0400 ca         1 DBP       0.022737
     25 C25         -1.4600    -2.4270    -0.0600 ca         1 DBP      -0.205024
     26 C26         -2.8960    -2.4030    -0.0670 ca         1 DBP      -0.178640
     27 C27         -3.5920    -1.1610    -0.1560 cp         1 DBP       0.038071
     28 C28         -4.8820    -0.6950    -0.1710 cp         1 DBP       0.049283
     29 C29         -6.1310    -1.4160    -0.2850 cp         1 DBP      -0.260792
     30 C30         -6.1310    -2.7730    -0.4890 cp         1 DBP       0.195266
     31 C31         -6.7490    -3.6240     0.5170 ca         1 DBP      -0.121503
     32 C32         -6.5760    -5.0130     0.5040 ca         1 DBP      -0.201183
     33 C33         -5.8390    -5.5580    -0.5540 ca         1 DBP      -0.096941
     34 C34         -5.2790    -4.7310    -1.5320 ca         1 DBP      -0.201183
     35 C35         -5.4380    -3.4040    -1.5370 ca         1 DBP      -0.121503
     36 C36         -7.3400    -0.6890    -0.1670 ca         1 DBP       0.169835
     37 C37         -8.5730    -1.3220    -0.3850 ca         1 DBP      -0.216933
     38 C38         -9.7260    -0.5590    -0.3340 ca         1 DBP      -0.139202
     39 C39         -9.6790     0.7760     0.0100 ca         1 DBP      -0.139202
     40 C40         -8.5080     1.4320     0.2090 ca         1 DBP      -0.216933
     41 C41         -7.2990     0.7170     0.1250 ca         1 DBP       0.169835
     42 C42         -6.0500     1.4050     0.1180 cp         1 DBP      -0.260792
     43 C43         -5.9620     2.8360     0.2840 cp         1 DBP       0.195266
     44 C44         -6.0930     3.5180     1.5350 ca         1 DBP      -0.121503
     45 C45         -5.6210     4.8480     1.7150 ca         1 DBP      -0.201183
     46 C46         -5.3220     5.5660     0.5650 ca         1 DBP      -0.096941
     47 C47         -5.3320     4.9360    -0.6930 ca         1 DBP      -0.201183
     48 C48         -5.5820     3.5450    -0.8310 ca         1 DBP      -0.121503
     49 C49         -4.8370     0.6980    -0.0560 cp         1 DBP       0.049283
     50 C50         -3.5540     1.1010     0.0570 cp         1 DBP       0.038071
     51 C51         -2.8950     2.3270     0.3340 ca         1 DBP      -0.178640
     52 C52         -1.4740     2.3780     0.3270 ca         1 DBP      -0.205024
     53 C53         -0.7360     1.2220     0.1470 ca         1 DBP       0.022737
     54 C54          0.6690     1.1880     0.0250 ca         1 DBP       0.022737
     55 C55          1.3970     2.3880    -0.0660 ca         1 DBP      -0.205024
     56 C56          2.8280     2.3090    -0.2070 ca         1 DBP      -0.178640
     57 C57          3.5100     1.0620    -0.0550 cp         1 DBP       0.038071
     58 C58          4.8720     0.6580     0.0370 cq         1 DBP       0.049283
     59 C59          2.7090    -0.0200    -0.0700 ca         1 DBP      -0.031717
     60 C60          1.3480    -0.0360    -0.0580 ca         1 DBP       0.074377
     61 C61         -1.3790    -0.0240     0.0230 ca         1 DBP       0.074377
     62 C62         -2.8140    -0.0550    -0.0230 ca         1 DBP      -0.031717
     63 C63          6.5680     3.5090    -1.1350 ca         1 DBP      -0.121503
     64 C64          6.3330     4.8980    -1.3180 ca         1 DBP      -0.201183
     65 H1           5.1630     6.4450    -0.7040 ha         1 DBP       0.120047
     66 H2           4.1320     5.2940     1.2050 ha         1 DBP       0.150411
     67 H3           5.0410     3.0100     1.8220 ha         1 DBP       0.123808
     68 H4           8.6890     2.4310    -0.5580 ha         1 DBP       0.135237
     69 H5          10.6320     1.2800    -0.5590 ha         1 DBP       0.133334
     70 H6          10.5690    -1.3290    -0.4260 ha         1 DBP       0.133334
     71 H7           8.6580    -2.4260    -0.3410 ha         1 DBP       0.135237
     72 H8           6.9870    -3.6670    -1.4320 ha         1 DBP       0.123808
     73 H9           6.7640    -6.0090    -0.5660 ha         1 DBP       0.150411
     74 H10          5.7770    -6.4140     1.5900 ha         1 DBP       0.120047
     75 H11          5.0400    -4.5700     3.0360 ha         1 DBP       0.150411
     76 H12          4.9240    -2.3080     2.1020 ha         1 DBP       0.123808
     77 H13          3.3800    -3.3470    -0.0950 ha         1 DBP       0.155835
     78 H14          1.0770    -3.4480    -0.1020 ha         1 DBP       0.153489
     79 H15         -0.9190    -3.3700    -0.0560 ha         1 DBP       0.153489
     80 H16         -3.3940    -3.3590     0.0740 ha         1 DBP       0.155835
     81 H17         -7.2920    -3.1980     1.3570 ha         1 DBP       0.123808
     82 H18         -6.8860    -5.5430     1.4010 ha         1 DBP       0.150411
     83 H19         -5.5910    -6.6160    -0.4970 ha         1 DBP       0.120047
     84 H20         -4.7190    -5.1520    -2.3630 ha         1 DBP       0.150411
     85 H21         -4.9920    -2.7740    -2.3030 ha         1 DBP       0.123808
     86 H22         -8.5970    -2.3560    -0.7180 ha         1 DBP       0.135237
     87 H23        -10.6710    -1.0620    -0.5230 ha         1 DBP       0.133334
     88 H24        -10.6160     1.3140     0.1290 ha         1 DBP       0.133334
     89 H25         -8.4370     2.5160     0.2620 ha         1 DBP       0.135237
     90 H26         -6.2750     2.9160     2.4220 ha         1 DBP       0.123808
     91 H27         -5.4730     5.3310     2.6770 ha         1 DBP       0.150411
     92 H28         -4.9280     6.5740     0.6630 ha         1 DBP       0.120047
     93 H29         -5.0350     5.5160    -1.5630 ha         1 DBP       0.150411
     94 H30         -5.3720     3.1140    -1.8060 ha         1 DBP       0.123808
     95 H31         -3.4550     3.2550     0.4050 ha         1 DBP       0.155835
     96 H32         -1.0190     3.3430     0.5390 ha         1 DBP       0.153489
     97 H33          0.9120     3.3550    -0.1750 ha         1 DBP       0.153489
     98 H34          3.4560     3.1210    -0.5650 ha         1 DBP       0.155835
     99 H35          7.0700     2.9740    -1.9370 ha         1 DBP       0.123808
    100 H36          6.5770     5.4820    -2.2010 ha         1 DBP       0.150411
@<TRIPOS>BOND
     1     1     2 ar  
     2     1    64 ar  
     3     1    65 1   
     4     2     3 ar  
     5     2    66 1   
     6     3     4 ar  
     7     3    67 1   
     8     4     5 1   
     9     4    63 ar  
    10     5     6 ar  
    11     5    58 2   
    12     6     7 ar  
    13     6    11 ar  
    14     7     8 ar  
    15     7    68 1   
    16     8     9 ar  
    17     8    69 1   
    18     9    10 ar  
    19     9    70 1   
    20    10    11 ar  
    21    10    71 1   
    22    11    12 1   
    23    12    13 1   
    24    12    19 2   
    25    13    14 1   
    26    13    18 2   
    27    14    15 ar  
    28    14    72 1   
    29    15    16 ar  
    30    15    73 1   
    31    16    17 ar  
    32    16    74 1   
    33    17    18 ar  
    34    17    75 1   
    35    18    76 1   
    36    19    20 1   
    37    19    58 1   
    38    20    21 1   
    39    20    59 2   
    40    21    22 ar  
    41    21    77 1   
    42    22    23 ar  
    43    22    78 1   
    44    23    24 ar  
    45    23    60 ar  
    46    24    25 ar  
    47    24    61 ar  
    48    25    26 ar  
    49    25    79 1   
    50    26    27 ar  
    51    26    80 1   
    52    27    28 ar  
    53    27    62 ar  
    54    28    29 ar  
    55    28    49 ar  
    56    29    30 1   
    57    29    36 ar  
    58    30    31 ar  
    59    30    35 ar  
    60    31    32 ar  
    61    31    81 1   
    62    32    33 ar  
    63    32    82 1   
    64    33    34 ar  
    65    33    83 1   
    66    34    35 ar  
    67    34    84 1   
    68    35    85 1   
    69    36    37 ar  
    70    36    41 ar  
    71    37    38 ar  
    72    37    86 1   
    73    38    39 ar  
    74    38    87 1   
    75    39    40 ar  
    76    39    88 1   
    77    40    41 ar  
    78    40    89 1   
    79    41    42 ar  
    80    42    43 1   
    81    42    49 ar  
    82    43    44 ar  
    83    43    48 ar  
    84    44    45 ar  
    85    44    90 1   
    86    45    46 ar  
    87    45    91 1   
    88    46    47 ar  
    89    46    92 1   
    90    47    48 ar  
    91    47    93 1   
    92    48    94 1   
    93    49    50 ar  
    94    50    51 ar  
    95    50    62 ar  
    96    51    52 ar  
    97    51    95 1   
    98    52    53 ar  
    99    52    96 1   
   100    53    54 ar  
   101    53    61 ar  
   102    54    55 ar  
   103    54    60 ar  
   104    55    56 ar  
   105    55    97 1   
   106    56    57 ar  
   107    56    98 1   
   108    57    58 1   
   109    57    59 ar  
   110    59    60 ar  
   111    61    62 ar  
   112    63    64 ar  
   113    63    99 1   
   114    64   100 1   
@<TRIPOS>SUBSTRUCTURE
     1 DBP         1 TEMP              0 ****  ****    0 ROOT
