@<TRIPOS>MOLECULE
THF
   13    13     1     0     0
SMALL
bcc


@<TRIPOS>ATOM
      1 C1          -1.1650    -0.4310     0.1320 c3         1 THF       0.127400
      2 H1          -1.9490    -0.8230    -0.5270 h1         1 THF       0.044700
      3 H2          -1.5360    -0.4830     1.1680 h1         1 THF       0.044700
      4 C2          -0.7340     0.9970    -0.2270 c3         1 THF      -0.106400
      5 H3          -1.3440     1.7610     0.2640 hc         1 THF       0.051700
      6 H4          -0.7970     1.1560    -1.3100 hc         1 THF       0.051700
      7 C3           0.7340     0.9970     0.2270 c3         1 THF      -0.106400
      8 H5           0.7970     1.1560     1.3100 hc         1 THF       0.051700
      9 H6           1.3440     1.7610    -0.2640 hc         1 THF       0.051700
     10 C4           1.1650    -0.4310    -0.1320 c3         1 THF       0.127400
     11 H7           1.9490    -0.8240     0.5270 h1         1 THF       0.044700
     12 H8           1.5350    -0.4830    -1.1680 h1         1 THF       0.044700
     13 O1          -0.0000    -1.2520     0.0000 os         1 THF      -0.427600
@<TRIPOS>BOND
     1     1     2 1   
     2     1     3 1   
     3     1     4 1   
     4     1    13 1   
     5     4     5 1   
     6     4     6 1   
     7     4     7 1   
     8     7     8 1   
     9     7     9 1   
    10     7    10 1   
    11    10    11 1   
    12    10    12 1   
    13    10    13 1   
@<TRIPOS>SUBSTRUCTURE
     1 THF         1 TEMP              0 ****  ****    0 ROOT
