@<TRIPOS>MOLECULE
DBS
  100   114     1     0     0
SMALL
No Charge or Current Charge


@<TRIPOS>ATOM
      1 C71         5.6850   -2.8020   -5.6180 ca        1 DBS      0.000000
      2 C72         5.1590   -1.7610   -4.8930 ca        1 DBS      0.000000
      3 C73         5.1740   -1.8160   -3.4830 ca        1 DBS      0.000000
      4 C74         5.8740   -2.8120   -2.8870 cp        1 DBS      0.000000
      5 C75         5.8920   -2.7820   -1.4790 cp        1 DBS      0.000000
      6 C76         7.0720   -2.4410   -0.7730 ca        1 DBS      0.000000
      7 C77         8.2240   -2.0270   -1.4870 ca        1 DBS      0.000000
      8 C78         9.3340   -1.5610   -0.7800 ca        1 DBS      0.000000
      9 C79         9.3670   -1.4830    0.5830 ca        1 DBS      0.000000
     10 C10         8.2050   -1.7950    1.2660 ca        1 DBS      0.000000
     11 C11         7.0320   -2.3070    0.6710 ca        1 DBS      0.000000
     12 C12         5.9130   -2.5480    1.4890 cq        1 DBS      0.000000
     13 C13         5.8750   -2.3670    2.8800 cq        1 DBS      0.000000
     14 C14         6.8250   -2.9900    3.8100 ca        1 DBS      0.000000
     15 C15         6.7040   -2.7460    5.1370 ca        1 DBS      0.000000
     16 C16         5.6320   -2.1200    5.6510 ca        1 DBS      0.000000
     17 C17         4.6740   -1.6190    4.8190 ca        1 DBS      0.000000
     18 C18         4.8390   -1.6270    3.4500 ca        1 DBS      0.000000
     19 C19         4.7900   -2.9360    0.6930 cp        1 DBS      0.000000
     20 C20         3.4500   -3.2320    1.1400 cq        1 DBS      0.000000
     21 C21         2.8840   -3.5070    2.3390 ca        1 DBS      0.000000
     22 C22         1.5260   -3.7610    2.4130 ca        1 DBS      0.000000
     23 C23         0.6860   -3.8650    1.2450 ca        1 DBS      0.000000
     24 C24        -0.7300   -3.8790    1.2280 ca        1 DBS      0.000000
     25 C25        -1.5020   -3.7830    2.4060 ca        1 DBS      0.000000
     26 C26        -2.8930   -3.5570    2.3500 ca        1 DBS      0.000000
     27 C27        -3.4960   -3.4810    1.0880 cp        1 DBS      0.000000
     28 C28        -4.7800   -3.1110    0.6610 cp        1 DBS      0.000000
     29 C29        -5.9280   -2.8680    1.4200 cp        1 DBS      0.000000
     30 C30        -5.9320   -3.1000    2.7540 cp        1 DBS      0.000000
     31 C31        -6.2700   -2.1380    3.7310 ca        1 DBS      0.000000
     32 C32        -6.5340   -2.5050    5.0320 ca        1 DBS      0.000000
     33 C33        -6.4610   -3.8700    5.4330 ca        1 DBS      0.000000
     34 C34        -6.0620   -4.7840    4.4780 ca        1 DBS      0.000000
     35 C35        -5.7670   -4.3950    3.1620 ca        1 DBS      0.000000
     36 C36        -7.0060   -2.2910    0.6840 ca        1 DBS      0.000000
     37 C37        -8.1390   -1.8360    1.3430 ca        1 DBS      0.000000
     38 C38        -9.2600   -1.3490    0.5910 ca        1 DBS      0.000000
     39 C39        -9.2630   -1.2310   -0.8090 ca        1 DBS      0.000000
     40 C40        -8.0910   -1.5930   -1.4470 ca        1 DBS      0.000000
     41 C41        -6.9860   -2.0970   -0.7400 ca        1 DBS      0.000000
     42 C42        -5.8150   -2.4560   -1.4100 cp        1 DBS      0.000000
     43 C43        -5.6440   -2.2130   -2.8080 cp        1 DBS      0.000000
     44 C44        -5.6020   -0.8710   -3.2180 ca        1 DBS      0.000000
     45 C45        -5.4070   -0.5260   -4.5810 ca        1 DBS      0.000000
     46 C46        -5.3150   -1.6060   -5.4770 ca        1 DBS      0.000000
     47 C47        -5.4760   -2.9460   -5.0760 ca        1 DBS      0.000000
     48 C48        -5.5690   -3.2580   -3.6870 ca        1 DBS      0.000000
     49 C49        -4.7460   -2.9650   -0.7040 cp        1 DBS      0.000000
     50 C50        -3.4770   -3.3130   -1.1630 cp        1 DBS      0.000000
     51 C51        -2.7900   -3.3610   -2.3510 ca        1 DBS      0.000000
     52 C52        -1.4130   -3.6870   -2.4060 ca        1 DBS      0.000000
     53 C53        -0.6510   -3.8330   -1.2270 ca        1 DBS      0.000000
     54 C54         0.7430   -3.8860   -1.2500 ca        1 DBS      0.000000
     55 C55         1.5720   -3.6700   -2.3850 ca        1 DBS      0.000000
     56 C56         2.9310   -3.5150   -2.3380 ca        1 DBS      0.000000
     57 C57         3.4670   -3.4220   -1.1100 cp        1 DBS      0.000000
     58 C58         4.7460   -2.9990   -0.7450 cq        1 DBS      0.000000
     59 C59         2.7390   -3.4580    0.0220 ca        1 DBS      0.000000
     60 C60         1.3710   -3.7250    0.0340 ca        1 DBS      0.000000
     61 C61        -1.3930   -3.7500   -0.0190 ca        1 DBS      0.000000
     62 C62        -2.7310   -3.5380   -0.0290 ca        1 DBS      0.000000
     63 C63         6.6750   -3.6810   -3.5830 ca        1 DBS      0.000000
     64 C64         6.4490   -3.7600   -4.9490 ca        1 DBS      0.000000
     65 H1          5.4560   -3.0160   -6.6600 ha        1 DBS      0.000000
     66 H2          4.6050   -0.9680   -5.3890 ha        1 DBS      0.000000
     67 H3          4.5330   -1.2520   -2.8100 ha        1 DBS      0.000000
     68 H4          8.3440   -1.9100   -2.5610 ha        1 DBS      0.000000
     69 H5         10.2850   -1.4430   -1.2920 ha        1 DBS      0.000000
     70 H6         10.2890   -1.4010    1.1530 ha        1 DBS      0.000000
     71 H7          8.2720   -1.6390    2.3400 ha        1 DBS      0.000000
     72 H8          7.5890   -3.6010    3.3360 ha        1 DBS      0.000000
     73 H9          7.3710   -3.3000    5.7930 ha        1 DBS      0.000000
     74 H10         5.4610   -1.9510    6.7120 ha        1 DBS      0.000000
     75 H11         3.8440   -1.1190    5.3110 ha        1 DBS      0.000000
     76 H12         4.1080   -1.1220    2.8240 ha        1 DBS      0.000000
     77 H13         3.4910   -3.5840    3.2370 ha        1 DBS      0.000000
     78 H14         1.1240   -4.0320    3.3860 ha        1 DBS      0.000000
     79 H15        -0.9640   -3.8250    3.3500 ha        1 DBS      0.000000
     80 H16        -3.4200   -3.2960    3.2640 ha        1 DBS      0.000000
     81 H17        -6.3170   -1.1050    3.3940 ha        1 DBS      0.000000
     82 H18        -6.7590   -1.7020    5.7290 ha        1 DBS      0.000000
     83 H19        -6.6670   -4.1200    6.4710 ha        1 DBS      0.000000
     84 H20        -5.9780   -5.8370    4.7350 ha        1 DBS      0.000000
     85 H21        -5.3500   -5.1340    2.4830 ha        1 DBS      0.000000
     86 H22        -8.2570   -1.7680    2.4220 ha        1 DBS      0.000000
     87 H23       -10.1020   -0.9260    1.1300 ha        1 DBS      0.000000
     88 H24       -10.1860   -1.1390   -1.3740 ha        1 DBS      0.000000
     89 H25        -8.0480   -1.5270   -2.5310 ha        1 DBS      0.000000
     90 H26        -5.5700   -0.0690   -2.4840 ha        1 DBS      0.000000
     91 H27        -5.2990    0.4950   -4.9380 ha        1 DBS      0.000000
     92 H28        -4.9890   -1.4830   -6.5070 ha        1 DBS      0.000000
     93 H29        -5.4800   -3.6740   -5.8830 ha        1 DBS      0.000000
     94 H30        -5.7020   -4.2850   -3.3570 ha        1 DBS      0.000000
     95 H31        -3.3190   -3.1340   -3.2720 ha        1 DBS      0.000000
     96 H32        -0.9590   -3.8240   -3.3850 ha        1 DBS      0.000000
     97 H33         1.0990   -3.5990   -3.3610 ha        1 DBS      0.000000
     98 H34         3.5490   -3.6210   -3.2260 ha        1 DBS      0.000000
     99 H35         7.2390   -4.3980   -2.9910 ha        1 DBS      0.000000
    100 H36         6.9040   -4.5900   -5.4830 ha        1 DBS      0.000000
@<TRIPOS>BOND
     1    1    2 ar  
     2    1   64 ar  
     3    1   65 1   
     4    2    3 ar  
     5    2   66 1   
     6    3    4 ar  
     7    3   67 1   
     8    4    5 1   
     9    4   63 ar  
    10    5    6 ar  
    11    5   58 2   
    12    6    7 ar  
    13    6   11 ar  
    14    7    8 ar  
    15    7   68 1   
    16    8    9 ar  
    17    8   69 1   
    18    9   10 ar  
    19    9   70 1   
    20   10   11 ar  
    21   10   71 1   
    22   11   12 1   
    23   12   13 1   
    24   12   19 2   
    25   13   14 1   
    26   13   18 2   
    27   14   15 ar  
    28   14   72 1   
    29   15   16 ar  
    30   15   73 1   
    31   16   17 ar  
    32   16   74 1   
    33   17   18 ar  
    34   17   75 1   
    35   18   76 1   
    36   19   20 1   
    37   19   58 1   
    38   20   21 1   
    39   20   59 2   
    40   21   22 ar  
    41   21   77 1   
    42   22   23 ar  
    43   22   78 1   
    44   23   24 ar  
    45   23   60 ar  
    46   24   25 ar  
    47   24   61 ar  
    48   25   26 ar  
    49   25   79 1   
    50   26   27 ar  
    51   26   80 1   
    52   27   28 ar  
    53   27   62 ar  
    54   28   29 ar  
    55   28   49 ar  
    56   29   30 1   
    57   29   36 ar  
    58   30   31 ar  
    59   30   35 ar  
    60   31   32 ar  
    61   31   81 1   
    62   32   33 ar  
    63   32   82 1   
    64   33   34 ar  
    65   33   83 1   
    66   34   35 ar  
    67   34   84 1   
    68   35   85 1   
    69   36   37 ar  
    70   36   41 ar  
    71   37   38 ar  
    72   37   86 1   
    73   38   39 ar  
    74   38   87 1   
    75   39   40 ar  
    76   39   88 1   
    77   40   41 ar  
    78   40   89 1   
    79   41   42 ar  
    80   42   43 1   
    81   42   49 ar  
    82   43   44 ar  
    83   43   48 ar  
    84   44   45 ar  
    85   44   90 1   
    86   45   46 ar  
    87   45   91 1   
    88   46   47 ar  
    89   46   92 1   
    90   47   48 ar  
    91   47   93 1   
    92   48   94 1   
    93   49   50 ar  
    94   50   51 ar  
    95   50   62 ar  
    96   51   52 ar  
    97   51   95 1   
    98   52   53 ar  
    99   52   96 1   
   100   53   54 ar  
   101   53   61 ar  
   102   54   55 ar  
   103   54   60 ar  
   104   55   56 ar  
   105   55   97 1   
   106   56   57 ar  
   107   56   98 1   
   108   57   58 1   
   109   57   59 ar  
   110   59   60 ar  
   111   61   62 ar  
   112   63   64 ar  
   113   63   99 1   
   114   64  100 1   
@<TRIPOS>SUBSTRUCTURE
     1 DBS         1 TEMP              0 ****  ****    0 ROOT
