@<TRIPOS>MOLECULE
TRI
  207   247     1     0     0
SMALL
No Charge or Current Charge


@<TRIPOS>ATOM
      1 C1          40.0350    34.0770    50.6230 ca         1 TRI       0.000000
      2 C2          39.3380    39.2460    54.4120 ca         1 TRI       0.000000
      3 C3          37.7820    37.7510    53.7550 ca         1 TRI       0.000000
      4 C4          37.7870    35.5450    52.8900 ca         1 TRI       0.000000
      5 C5          41.7510    39.4720    54.5250 ca         1 TRI       0.000000
      6 C6          40.5540    39.8450    53.9780 ca         1 TRI       0.000000
      7 C7          40.5060    37.8800    55.8140 ca         1 TRI       0.000000
      8 C8          38.6960    35.9230    55.0640 ca         1 TRI       0.000000
      9 C9          41.0210    33.3150    52.4580 ca         1 TRI       0.000000
     10 C10         41.7630    38.4630    55.4940 ca         1 TRI       0.000000
     11 C11         39.0670    33.9860    51.5870 ca         1 TRI       0.000000
     12 C12         44.0530    37.9970    52.3010 ca         1 TRI       0.000000
     13 C13         42.7500    39.5300    53.5500 ca         1 TRI       0.000000
     14 C14         43.9680    35.8060    51.4200 ca         1 TRI       0.000000
     15 C15         43.0780    34.2830    53.0860 ca         1 TRI       0.000000
     16 C16         43.3670    34.6030    51.7160 ca         1 TRI       0.000000
     17 C17         43.7250    37.4990    54.4290 ca         1 TRI       0.000000
     18 C18         40.7550    36.4980    55.9990 ca         1 TRI       0.000000
     19 C19         39.8760    35.4880    55.5980 ca         1 TRI       0.000000
     20 C20         41.6050    34.0670    54.7650 ca         1 TRI       0.000000
     21 C21         38.9830    38.7130    49.7580 c3         1 TRI       0.000000
     22 C22         40.1550    39.5690    50.3600 ca         1 TRI       0.000000
     23 C23         38.1700    38.4740    51.0490 ca         1 TRI       0.000000
     24 C24         38.6760    39.2680    52.0730 ca         1 TRI       0.000000
     25 C25         42.4200    35.2760    49.8460 ca         1 TRI       0.000000
     26 C26         41.4930    39.1470    50.1950 ca         1 TRI       0.000000
     27 C27         38.1770    35.0390    51.6710 ca         1 TRI       0.000000
     28 C28         43.4590    38.4990    51.1480 ca         1 TRI       0.000000
     29 C29         42.1370    39.9600    52.3850 ca         1 TRI       0.000000
     30 C30         43.3620    36.2270    50.2890 ca         1 TRI       0.000000
     31 C31         37.6630    37.2160    51.3530 ca         1 TRI       0.000000
     32 C32         44.0660    36.3330    53.7660 ca         1 TRI       0.000000
     33 C33         43.5660    35.1440    54.0990 ca         1 TRI       0.000000
     34 C34         40.2840    34.3240    55.0120 ca         1 TRI       0.000000
     35 C35         42.0670    36.3100    55.6780 ca         1 TRI       0.000000
     36 C36         39.4640    37.4140    49.0360 c3         1 TRI       0.000000
     37 C37         40.9690    37.1060    49.1100 ca         1 TRI       0.000000
     38 C38         39.0220    36.0450    49.6680 ca         1 TRI       0.000000
     39 C39         41.1880    35.7080    49.2800 ca         1 TRI       0.000000
     40 C40         41.9580    33.5940    53.4630 ca         1 TRI       0.000000
     41 C41         39.7880    39.9570    51.6800 ca         1 TRI       0.000000
     42 C42         38.1660    36.0760    50.7780 ca         1 TRI       0.000000
     43 C43         39.9810    35.1280    49.6730 ca         1 TRI       0.000000
     44 C44         37.4780    36.8890    52.7200 ca         1 TRI       0.000000
     45 C45         42.4310    34.2380    50.7720 ca         1 TRI       0.000000
     46 C46         41.8880    38.0260    49.5700 ca         1 TRI       0.000000
     47 C47         42.4930    39.4230    51.2030 ca         1 TRI       0.000000
     48 C48         38.4550    38.9230    53.4180 ca         1 TRI       0.000000
     49 C49         40.7660    40.1900    52.6350 ca         1 TRI       0.000000
     50 C50         42.5390    35.1030    55.1220 ca         1 TRI       0.000000
     51 C51         43.0780    37.6250    50.1630 ca         1 TRI       0.000000
     52 C52         41.2280    33.6420    51.1440 ca         1 TRI       0.000000
     53 C53         39.3100    38.1990    55.2640 ca         1 TRI       0.000000
     54 C54         38.4040    37.2590    54.8840 ca         1 TRI       0.000000
     55 C55         38.3200    35.0580    54.0590 ca         1 TRI       0.000000
     56 C56         39.6650    33.5280    52.7620 ca         1 TRI       0.000000
     57 C57         43.7450    38.5440    53.5370 ca         1 TRI       0.000000
     58 C58         44.2590    36.6580    52.4530 ca         1 TRI       0.000000
     59 C59         39.3270    34.0230    54.0280 ca         1 TRI       0.000000
     60 C60         42.7350    37.4630    55.4080 ca         1 TRI       0.000000
     61 C61         38.0670    39.3500    48.6800 ce         1 TRI       0.000000
     62 N1          38.0410    38.6980    47.5680 n2         1 TRI       0.000000
     63 C62         38.8940    37.5010    47.5830 c3         1 TRI       0.000000
     64 H1          39.7680    37.5710    46.9310 h1         1 TRI       0.000000
     65 H2          38.2550    36.6210    47.4730 h1         1 TRI       0.000000
     66 C63         36.8990    43.5470    48.4450 ca         1 TRI       0.000000
     67 C64         37.0630    42.9180    49.7160 ca         1 TRI       0.000000
     68 H3          36.8760    43.3870    50.6790 ha         1 TRI       0.000000
     69 C65         37.4520    41.5590    49.7040 ca         1 TRI       0.000000
     70 H4          37.3500    41.0040    50.6330 ha         1 TRI       0.000000
     71 C66         37.6860    40.8310    48.5710 ca         1 TRI       0.000000
     72 C67         37.1690    42.8420    47.2560 ca         1 TRI       0.000000
     73 H5          37.2350    43.3190    46.2820 ha         1 TRI       0.000000
     74 C68         37.5740    41.4630    47.3060 ca         1 TRI       0.000000
     75 H6          37.8780    40.8280    46.4780 ha         1 TRI       0.000000
     76 C69         36.4470    44.9890    48.4550 ce         1 TRI       0.000000
     77 C70         36.1620    45.6730    49.7090 cc         1 TRI       0.000000
     78 C71         35.2740    45.4150    50.7540 cd         1 TRI       0.000000
     79 H7          34.5720    44.5950    50.8700 ha         1 TRI       0.000000
     80 C72         35.4130    46.4670    51.7070 cd         1 TRI       0.000000
     81 H8          34.7790    46.6540    52.5680 ha         1 TRI       0.000000
     82 C73         36.5080    47.2140    51.2670 cc         1 TRI       0.000000
     83 N2          36.8780    46.7290    50.0700 na         1 TRI       0.000000
     84 H9          37.6740    47.1330    49.5950 hn         1 TRI       0.000000
     85 C74         36.9820    48.4490    51.7830 ce         1 TRI       0.000000
     86 H10         36.5460    48.7650    52.7300 ha         1 TRI       0.000000
     87 C75         37.9550    49.2710    51.2820 cd         1 TRI       0.000000
     88 C76         38.3550    50.4500    51.9450 cd         1 TRI       0.000000
     89 H11         38.0190    50.7910    52.9180 ha         1 TRI       0.000000
     90 C77         39.1860    51.0530    51.0890 cc         1 TRI       0.000000
     91 H12         39.8030    51.9090    51.3400 ha         1 TRI       0.000000
     92 C78         39.3790    50.1290    49.9380 cc         1 TRI       0.000000
     93 N3          38.4830    49.1350    50.0260 nd         1 TRI       0.000000
     94 C79         40.1790    50.3930    48.7630 ce         1 TRI       0.000000
     95 C80         39.6460    50.2700    47.4800 cd         1 TRI       0.000000
     96 C81         39.6680    51.1100    46.3260 cd         1 TRI       0.000000
     97 H13         40.2830    51.9760    46.1060 ha         1 TRI       0.000000
     98 C82         38.7210    50.6220    45.4480 cc         1 TRI       0.000000
     99 H14         38.5140    51.0850    44.4890 ha         1 TRI       0.000000
    100 C83         38.1630    49.4030    45.8910 cc         1 TRI       0.000000
    101 N4          38.6910    49.3180    47.1220 na         1 TRI       0.000000
    102 H15         38.5030    48.4910    47.6730 hn         1 TRI       0.000000
    103 C84         37.3840    48.5420    45.2970 cf         1 TRI       0.000000
    104 H16         37.1780    48.7810    44.2550 ha         1 TRI       0.000000
    105 C85         36.8880    47.2840    45.8090 cd         1 TRI       0.000000
    106 C86         35.9420    46.3680    45.2800 cd         1 TRI       0.000000
    107 H17         35.4600    46.6080    44.3390 ha         1 TRI       0.000000
    108 C87         35.6700    45.3720    46.1850 cc         1 TRI       0.000000
    109 H18         34.8720    44.6460    46.0740 ha         1 TRI       0.000000
    110 C88         36.5240    45.6210    47.2110 cd         1 TRI       0.000000
    111 N5          37.2250    46.7110    46.9920 nc         1 TRI       0.000000
    112 C89         44.3700    51.2160    49.5160 ca         1 TRI       0.000000
    113 C90         43.9040    51.2550    48.2120 ca         1 TRI       0.000000
    114 H19         44.5990    51.5580    47.4330 ha         1 TRI       0.000000
    115 C91         42.5380    50.9620    48.0140 ca         1 TRI       0.000000
    116 H20         42.1130    50.9330    47.0140 ha         1 TRI       0.000000
    117 C92         41.6250    50.5900    49.0570 ca         1 TRI       0.000000
    118 C93         43.5610    50.8210    50.5690 ca         1 TRI       0.000000
    119 H21         44.0530    50.8390    51.5390 ha         1 TRI       0.000000
    120 C94         42.2030    50.4960    50.3830 ca         1 TRI       0.000000
    121 H22         41.6940    50.1610    51.2830 ha         1 TRI       0.000000
    122 N6          45.7140    51.5770    49.8260 n          1 TRI       0.000000
    123 H23         46.2440    50.8550    50.2910 hn         1 TRI       0.000000
    124 C95         46.3670    52.7220    49.4330 c          1 TRI       0.000000
    125 O1          45.7270    53.5050    48.7150 o          1 TRI       0.000000
    126 C96         47.7670    52.9840    49.9100 ca         1 TRI       0.000000
    127 C97         48.6330    53.6720    49.1290 ca         1 TRI       0.000000
    128 H24         48.2000    53.9410    48.1690 ha         1 TRI       0.000000
    129 C98         49.9330    53.9220    49.4700 ca         1 TRI       0.000000
    130 C99         50.2870    53.6130    50.8220 ca         1 TRI       0.000000
    131 H25         51.2890    53.8970    51.1310 ha         1 TRI       0.000000
    132 C100        49.5200    52.8600    51.6410 ca         1 TRI       0.000000
    133 H26         49.8190    52.6220    52.6590 ha         1 TRI       0.000000
    134 C101        48.2220    52.6070    51.2400 ca         1 TRI       0.000000
    135 H27         47.5860    51.9410    51.8170 ha         1 TRI       0.000000
    136 C102        50.9090    54.4950    48.5510 ce         1 TRI       0.000000
    137 H28         50.3910    54.6440    47.6040 ha         1 TRI       0.000000
    138 C103        52.2230    54.8070    48.7320 cf         1 TRI       0.000000
    139 H29         52.5960    54.6170    49.7370 ha         1 TRI       0.000000
    140 C104        53.2120    55.2490    47.7650 cf         1 TRI       0.000000
    141 C105        52.7480    55.1230    46.3480 c3         1 TRI       0.000000
    142 H30         51.9080    54.4340    46.2340 hc         1 TRI       0.000000
    143 H31         53.4810    54.5970    45.7320 hc         1 TRI       0.000000
    144 H32         52.6150    56.1420    45.9800 hc         1 TRI       0.000000
    145 C106        54.5160    55.4660    48.0210 ce         1 TRI       0.000000
    146 H33         54.7850    55.4780    49.0760 ha         1 TRI       0.000000
    147 C107        55.5190    55.7120    47.0040 ce         1 TRI       0.000000
    148 H34         55.2420    55.8420    45.9590 ha         1 TRI       0.000000
    149 C108        56.7870    56.0030    47.2700 cf         1 TRI       0.000000
    150 H35         57.0870    55.9340    48.3150 ha         1 TRI       0.000000
    151 C109        57.9220    56.3960    46.5210 cf         1 TRI       0.000000
    152 C110        58.2440    55.6000    45.2760 c3         1 TRI       0.000000
    153 H36         57.4820    54.8210    45.2090 hc         1 TRI       0.000000
    154 H37         58.2550    56.2850    44.4260 hc         1 TRI       0.000000
    155 H38         59.1560    55.0260    45.4530 hc         1 TRI       0.000000
    156 C111        58.8240    57.2890    47.0010 ce         1 TRI       0.000000
    157 H39         58.4550    57.8940    47.8270 ha         1 TRI       0.000000
    158 C112        60.0390    57.7130    46.2730 ce         1 TRI       0.000000
    159 H40         60.1960    57.4870    45.2190 ha         1 TRI       0.000000
    160 C113        60.9820    58.4930    46.9030 cf         1 TRI       0.000000
    161 H41         60.8650    58.7880    47.9450 ha         1 TRI       0.000000
    162 C114        62.3270    58.9690    46.3970 cf         1 TRI       0.000000
    163 H42         62.4380    58.7130    45.3440 ha         1 TRI       0.000000
    164 C115        63.2140    59.8090    46.9550 ce         1 TRI       0.000000
    165 C116        62.8640    60.5110    48.2900 c3         1 TRI       0.000000
    166 H43         61.8710    60.9560    48.1970 hc         1 TRI       0.000000
    167 H44         62.6500    59.8460    49.1290 hc         1 TRI       0.000000
    168 H45         63.6330    61.1590    48.7140 hc         1 TRI       0.000000
    169 C117        64.3880    60.2740    46.2040 ce         1 TRI       0.000000
    170 H46         64.5030    59.9160    45.1820 ha         1 TRI       0.000000
    171 C118        65.5570    60.8040    46.6510 cf         1 TRI       0.000000
    172 H47         65.6900    60.7960    47.7310 ha         1 TRI       0.000000
    173 C119        66.8040    61.0440    45.8470 cf         1 TRI       0.000000
    174 H48         66.7090    60.8510    44.7800 ha         1 TRI       0.000000
    175 C120        68.0120    61.4460    46.2900 ce         1 TRI       0.000000
    176 C121        68.4660    61.7870    47.6380 c3         1 TRI       0.000000
    177 H49         67.5900    61.5910    48.2590 hc         1 TRI       0.000000
    178 H50         69.2060    60.9910    47.7420 hc         1 TRI       0.000000
    179 H51         68.8740    62.8000    47.6740 hc         1 TRI       0.000000
    180 C122        69.1080    61.6900    45.3210 ce         1 TRI       0.000000
    181 H52         69.9710    62.2430    45.6900 ha         1 TRI       0.000000
    182 C123        69.1530    61.2270    44.0660 cf         1 TRI       0.000000
    183 H53         68.3560    60.6050    43.6630 ha         1 TRI       0.000000
    184 C124        70.2930    61.5350    43.1420 cf         1 TRI       0.000000
    185 C125        71.5850    61.3930    43.3870 c2         1 TRI       0.000000
    186 C126        72.1780    60.7830    44.6870 c3         1 TRI       0.000000
    187 H54         72.9080    59.9810    44.5560 hc         1 TRI       0.000000
    188 H55         72.7520    61.5000    45.2780 hc         1 TRI       0.000000
    189 H56         71.4010    60.3040    45.2860 hc         1 TRI       0.000000
    190 C127        72.6600    61.7300    42.4490 c3         1 TRI       0.000000
    191 H57         73.5010    61.0350    42.4240 hc         1 TRI       0.000000
    192 H58         72.9390    62.6950    42.8770 hc         1 TRI       0.000000
    193 C128        72.2090    61.8340    41.0250 c3         1 TRI       0.000000
    194 H59         72.1420    60.8910    40.4790 hc         1 TRI       0.000000
    195 H60         72.9670    62.2980    40.3910 hc         1 TRI       0.000000
    196 C129        70.9320    62.6510    40.9290 c3         1 TRI       0.000000
    197 H61         71.0920    63.6600    41.3140 hc         1 TRI       0.000000
    198 H62         70.6330    62.7740    39.8860 hc         1 TRI       0.000000
    199 C130        69.8220    61.9740    41.7010 c3         1 TRI       0.000000
    200 C131        68.6900    62.9340    41.8100 c3         1 TRI       0.000000
    201 H63         68.9210    63.8600    42.3410 hc         1 TRI       0.000000
    202 H64         68.3900    63.2330    40.8040 hc         1 TRI       0.000000
    203 H65         67.7640    62.5760    42.2660 hc         1 TRI       0.000000
    204 C132        69.2920    60.7960    40.8260 c3         1 TRI       0.000000
    205 H66         69.0400    61.1250    39.8160 hc         1 TRI       0.000000
    206 H67         70.0670    60.0300    40.8980 hc         1 TRI       0.000000
    207 H68         68.3940    60.3440    41.2530 hc         1 TRI       0.000000
@<TRIPOS>BOND
     1     1    11 ar  
     2     1    43 ar  
     3     1    52 ar  
     4     2     6 ar  
     5     2    48 ar  
     6     2    53 ar  
     7     3    44 ar  
     8     3    48 ar  
     9     3    54 ar  
    10     4    27 ar  
    11     4    44 ar  
    12     4    55 ar  
    13     5     6 ar  
    14     5    10 ar  
    15     5    13 ar  
    16     6    49 ar  
    17     7    10 ar  
    18     7    18 ar  
    19     7    53 ar  
    20     8    19 ar  
    21     8    54 ar  
    22     8    55 ar  
    23     9    40 ar  
    24     9    52 ar  
    25     9    56 ar  
    26    10    60 ar  
    27    11    27 ar  
    28    11    56 ar  
    29    12    28 ar  
    30    12    57 ar  
    31    12    58 ar  
    32    13    29 ar  
    33    13    57 ar  
    34    14    16 ar  
    35    14    30 ar  
    36    14    58 ar  
    37    15    16 ar  
    38    15    33 ar  
    39    15    40 ar  
    40    16    45 ar  
    41    17    32 ar  
    42    17    57 ar  
    43    17    60 ar  
    44    18    19 ar  
    45    18    35 ar  
    46    19    34 ar  
    47    20    34 ar  
    48    20    40 ar  
    49    20    50 ar  
    50    21    22 1   
    51    21    23 1   
    52    21    36 1   
    53    21    61 1   
    54    22    26 ar  
    55    22    41 ar  
    56    23    24 ar  
    57    23    31 ar  
    58    24    41 ar  
    59    24    48 ar  
    60    25    30 ar  
    61    25    39 ar  
    62    25    45 ar  
    63    26    46 ar  
    64    26    47 ar  
    65    27    42 ar  
    66    28    47 ar  
    67    28    51 ar  
    68    29    47 ar  
    69    29    49 ar  
    70    30    51 ar  
    71    31    42 ar  
    72    31    44 ar  
    73    32    33 ar  
    74    32    58 ar  
    75    33    50 ar  
    76    34    59 ar  
    77    35    50 ar  
    78    35    60 ar  
    79    36    37 1   
    80    36    38 1   
    81    36    63 1   
    82    37    39 ar  
    83    37    46 ar  
    84    38    42 ar  
    85    38    43 ar  
    86    39    43 ar  
    87    41    49 ar  
    88    45    52 ar  
    89    46    51 ar  
    90    53    54 ar  
    91    55    59 ar  
    92    56    59 ar  
    93    61    62 2   
    94    61    71 1   
    95    62    63 1   
    96    63    64 1   
    97    63    65 1   
    98    66    67 ar  
    99    66    72 ar  
   100    66    76 1   
   101    67    68 1   
   102    67    69 ar  
   103    69    70 1   
   104    69    71 ar  
   105    71    74 ar  
   106    72    73 1   
   107    72    74 ar  
   108    74    75 1   
   109    76    77 1   
   110    76   110 2   
   111    77    78 2   
   112    77    83 1   
   113    78    79 1   
   114    78    80 1   
   115    80    81 1   
   116    80    82 2   
   117    82    83 1   
   118    82    85 1   
   119    83    84 1   
   120    85    86 1   
   121    85    87 2   
   122    87    88 1   
   123    87    93 1   
   124    88    89 1   
   125    88    90 2   
   126    90    91 1   
   127    90    92 1   
   128    92    93 2   
   129    92    94 1   
   130    94    95 2   
   131    94   117 1   
   132    95    96 1   
   133    95   101 1   
   134    96    97 1   
   135    96    98 2   
   136    98    99 1   
   137    98   100 1   
   138   100   101 1   
   139   100   103 2   
   140   101   102 1   
   141   103   104 1   
   142   103   105 1   
   143   105   106 1   
   144   105   111 2   
   145   106   107 1   
   146   106   108 2   
   147   108   109 1   
   148   108   110 1   
   149   110   111 1   
   150   112   113 ar  
   151   112   118 ar  
   152   112   122 1   
   153   113   114 1   
   154   113   115 ar  
   155   115   116 1   
   156   115   117 ar  
   157   117   120 ar  
   158   118   119 1   
   159   118   120 ar  
   160   120   121 1   
   161   122   123 1   
   162   122   124 1   
   163   124   125 2   
   164   124   126 1   
   165   126   127 ar  
   166   126   134 ar  
   167   127   128 1   
   168   127   129 ar  
   169   129   130 ar  
   170   129   136 1   
   171   130   131 1   
   172   130   132 ar  
   173   132   133 1   
   174   132   134 ar  
   175   134   135 1   
   176   136   137 1   
   177   136   138 2   
   178   138   139 1   
   179   138   140 1   
   180   140   141 1   
   181   140   145 2   
   182   141   142 1   
   183   141   143 1   
   184   141   144 1   
   185   145   146 1   
   186   145   147 1   
   187   147   148 1   
   188   147   149 2   
   189   149   150 1   
   190   149   151 1   
   191   151   152 1   
   192   151   156 2   
   193   152   153 1   
   194   152   154 1   
   195   152   155 1   
   196   156   157 1   
   197   156   158 1   
   198   158   159 1   
   199   158   160 2   
   200   160   161 1   
   201   160   162 1   
   202   162   163 1   
   203   162   164 2   
   204   164   165 1   
   205   164   169 1   
   206   165   166 1   
   207   165   167 1   
   208   165   168 1   
   209   169   170 1   
   210   169   171 2   
   211   171   172 1   
   212   171   173 1   
   213   173   174 1   
   214   173   175 2   
   215   175   176 1   
   216   175   180 1   
   217   176   177 1   
   218   176   178 1   
   219   176   179 1   
   220   180   181 1   
   221   180   182 2   
   222   182   183 1   
   223   182   184 1   
   224   184   185 2   
   225   184   199 1   
   226   185   186 1   
   227   185   190 1   
   228   186   187 1   
   229   186   188 1   
   230   186   189 1   
   231   190   191 1   
   232   190   192 1   
   233   190   193 1   
   234   193   194 1   
   235   193   195 1   
   236   193   196 1   
   237   196   197 1   
   238   196   198 1   
   239   196   199 1   
   240   199   200 1   
   241   199   204 1   
   242   200   201 1   
   243   200   202 1   
   244   200   203 1   
   245   204   205 1   
   246   204   206 1   
   247   204   207 1   
@<TRIPOS>SUBSTRUCTURE
     1 TRI         1 TEMP              0 ****  ****    0 ROOT
