@<TRIPOS>MOLECULE
C7S
   70   105     1     0     0
SMALL
No Charge or Current Charge


@<TRIPOS>ATOM
      1 C1          0.2230    1.3360   -3.6980 ca        1 C7S      0.000000
      2 C2         -0.6180    2.3960   -3.9250 ca        1 C7S      0.000000
      3 C3         -1.8530    1.9620   -3.4920 ca        1 C7S      0.000000
      4 C4         -1.7470    0.6690   -2.9750 ca        1 C7S      0.000000
      5 C5         -0.4150    0.2840   -3.0960 ca        1 C7S      0.000000
      6 C6         -0.2470    3.7110   -3.8010 ca        1 C7S      0.000000
      7 C7         -1.0450    4.6520   -3.1710 ca        1 C7S      0.000000
      8 C8         -2.2630    4.2040   -2.6810 ca        1 C7S      0.000000
      9 C9         -2.7040    2.9200   -2.8670 ca        1 C7S      0.000000
     10 C10        -3.4130    2.6160   -1.7420 ca        1 C7S      0.000000
     11 C11        -3.3160    1.3130   -1.1800 ca        1 C7S      0.000000
     12 C12        -2.4560    0.3680   -1.7830 ca        1 C7S      0.000000
     13 C13        -1.7950   -0.3910   -0.8280 ca        1 C7S      0.000000
     14 C14        -0.4690   -0.7310   -0.9790 ca        1 C7S      0.000000
     15 C15         0.2080   -0.3610   -2.0870 ca        1 C7S      0.000000
     16 C16         1.4900   -0.2180   -1.7330 ca        1 C7S      0.000000
     17 C17         2.2010    0.9060   -2.3800 ca        1 C7S      0.000000
     18 C18         1.5420    1.6070   -3.3700 ca        1 C7S      0.000000
     19 C19         1.9660    2.8960   -3.1900 ca        1 C7S      0.000000
     20 C20         1.0760    3.9980   -3.4590 ca        1 C7S      0.000000
     21 C21         3.0590    1.6780   -1.5740 ca        1 C7S      0.000000
     22 C22         2.8110    2.9840   -2.0690 ca        1 C7S      0.000000
     23 C23        -0.1900    5.3950   -2.3800 ca        1 C7S      0.000000
     24 C24         1.0830    5.0360   -2.5340 ca        1 C7S      0.000000
     25 C25         1.6020   -0.4690   -0.3650 ca        1 C7S      0.000000
     26 C26         0.3100   -0.8360    0.1060 ca        1 C7S      0.000000
     27 C27        -2.2620    0.0230    0.4150 ca        1 C7S      0.000000
     28 C28        -3.1550    1.0920    0.2250 ca        1 C7S      0.000000
     29 C29        -3.3460    3.6460   -0.8530 ca        1 C7S      0.000000
     30 C30        -2.6720    4.6970   -1.4810 ca        1 C7S      0.000000
     31 C31        -1.8850    5.5800   -0.7240 ca        1 C7S      0.000000
     32 C32        -0.6070    6.0280   -1.2400 ca        1 C7S      0.000000
     33 C33         2.0180    5.1520   -1.4620 ca        1 C7S      0.000000
     34 C34         2.9180    4.0590   -1.2660 ca        1 C7S      0.000000
     35 C35         3.1520    1.4000   -0.1900 ca        1 C7S      0.000000
     36 C36         2.4740    0.3030    0.3850 ca        1 C7S      0.000000
     37 C37        -1.4310   -0.0170    1.5840 ca        1 C7S      0.000000
     38 C38        -0.1180   -0.4670    1.4200 ca        1 C7S      0.000000
     39 C39        -3.3650    3.5220    0.5460 ca        1 C7S      0.000000
     40 C40        -3.3310    2.1830    1.1270 ca        1 C7S      0.000000
     41 C41        -2.1070    5.5810    0.6480 ca        1 C7S      0.000000
     42 C42        -2.8580    4.6200    1.2960 ca        1 C7S      0.000000
     43 C43         1.6610    5.9140   -0.3560 ca        1 C7S      0.000000
     44 C44         0.3290    6.3800   -0.2590 ca        1 C7S      0.000000
     45 C45         3.3810    3.7790   -0.0010 ca        1 C7S      0.000000
     46 C46         3.5600    2.4970    0.5600 ca        1 C7S      0.000000
     47 C47        -2.6570    1.9790    2.3460 ca        1 C7S      0.000000
     48 C48        -1.7050    0.9390    2.5690 ca        1 C7S      0.000000
     49 C49         0.9070    0.0280    2.3330 ca        1 C7S      0.000000
     50 C50         2.1870    0.4250    1.7860 ca        1 C7S      0.000000
     51 C51         2.5940    1.5120    2.5190 ca        1 C7S      0.000000
     52 C52         3.2940    2.5450    1.9220 ca        1 C7S      0.000000
     53 C53         3.0540    4.6120    1.0640 ca        1 C7S      0.000000
     54 C54         2.1640    5.6050    0.8310 ca        1 C7S      0.000000
     55 C55         0.1270    6.4500    1.1020 ca        1 C7S      0.000000
     56 C56        -1.1200    6.0320    1.5480 ca        1 C7S      0.000000
     57 C57        -2.3250    4.4190    2.5790 ca        1 C7S      0.000000
     58 C58        -2.2240    3.1190    3.0360 ca        1 C7S      0.000000
     59 C59         0.5360    0.9330    3.3280 ca        1 C7S      0.000000
     60 C60        -0.7340    1.4000    3.4620 ca        1 C7S      0.000000
     61 C61        -1.2420    5.3190    2.7370 ca        1 C7S      0.000000
     62 C62        -1.0660    2.7020    3.7720 ca        1 C7S      0.000000
     63 C63         1.5920    1.8080    3.5030 ca        1 C7S      0.000000
     64 C64         3.0430    3.8920    2.2130 ca        1 C7S      0.000000
     65 C65         1.2670    5.9740    1.7790 ca        1 C7S      0.000000
     66 C66         2.0770    4.1710    3.1840 ca        1 C7S      0.000000
     67 C67         1.1670    5.2590    2.9860 ca        1 C7S      0.000000
     68 C68        -0.0670    4.9120    3.4670 ca        1 C7S      0.000000
     69 C69         1.3220    3.1690    3.8080 ca        1 C7S      0.000000
     70 C70        -0.0050    3.5940    3.9880 ca        1 C7S      0.000000
@<TRIPOS>BOND
     1    1    2 ar  
     2    1    5 ar  
     3    1   18 ar  
     4    2    3 ar  
     5    2    6 ar  
     6    3    4 ar  
     7    3    9 ar  
     8    4    5 ar  
     9    4   12 ar  
    10    5   15 ar  
    11    6    7 ar  
    12    6   20 ar  
    13    7    8 ar  
    14    7   23 ar  
    15    8    9 ar  
    16    8   30 ar  
    17    9   10 ar  
    18   10   11 ar  
    19   10   29 ar  
    20   11   12 ar  
    21   11   28 ar  
    22   12   13 ar  
    23   13   14 ar  
    24   13   27 ar  
    25   14   15 ar  
    26   14   26 ar  
    27   15   16 ar  
    28   16   17 ar  
    29   16   25 ar  
    30   17   18 ar  
    31   17   21 ar  
    32   18   19 ar  
    33   19   20 ar  
    34   19   22 ar  
    35   20   24 ar  
    36   21   22 ar  
    37   21   35 ar  
    38   22   34 ar  
    39   23   24 ar  
    40   23   32 ar  
    41   24   33 ar  
    42   25   26 ar  
    43   25   36 ar  
    44   26   38 ar  
    45   27   28 ar  
    46   27   37 ar  
    47   28   40 ar  
    48   29   30 ar  
    49   29   39 ar  
    50   30   31 ar  
    51   31   32 ar  
    52   31   41 ar  
    53   32   44 ar  
    54   33   34 ar  
    55   33   43 ar  
    56   34   45 ar  
    57   35   36 ar  
    58   35   46 ar  
    59   36   50 ar  
    60   37   38 ar  
    61   37   48 ar  
    62   38   49 ar  
    63   39   40 ar  
    64   39   42 ar  
    65   40   47 ar  
    66   41   42 ar  
    67   41   56 ar  
    68   42   57 ar  
    69   43   44 ar  
    70   43   54 ar  
    71   44   55 ar  
    72   45   46 ar  
    73   45   53 ar  
    74   46   52 ar  
    75   47   48 ar  
    76   47   58 ar  
    77   48   60 ar  
    78   49   50 ar  
    79   49   59 ar  
    80   50   51 ar  
    81   51   52 ar  
    82   51   63 ar  
    83   52   64 ar  
    84   53   54 ar  
    85   53   64 ar  
    86   54   65 ar  
    87   55   56 ar  
    88   55   65 ar  
    89   56   61 ar  
    90   57   58 ar  
    91   57   61 ar  
    92   58   62 ar  
    93   59   60 ar  
    94   59   63 ar  
    95   60   62 ar  
    96   61   68 ar  
    97   62   70 ar  
    98   63   69 ar  
    99   64   66 ar  
   100   65   67 ar  
   101   66   67 ar  
   102   66   69 ar  
   103   67   68 ar  
   104   68   70 ar  
   105   69   70 ar  
@<TRIPOS>SUBSTRUCTURE
     1 C7S         1 TEMP              0 ****  ****    0 ROOT
