@<TRIPOS>MOLECULE
C70
   70   105     1     0     0
SMALL
resp


@<TRIPOS>ATOM
      1 C1          -3.8840    -0.4110    -1.2020 ca         1 C70      -0.000000
      2 C2          -4.0020     0.8780    -0.5980 ca         1 C70      -0.000000
      3 C3          -3.9220     0.6530     0.7950 ca         1 C70      -0.000000
      4 C4          -3.7860    -0.7350     1.0400 ca         1 C70      -0.000000
      5 C5          -3.7470    -1.3690    -0.2320 ca         1 C70      -0.000000
      6 C6          -3.3110     1.9830    -1.0720 ca         1 C70      -0.000000
      7 C7          -2.6400     2.8180    -0.1840 ca         1 C70      -0.000000
      8 C8          -2.5730     2.5910     1.1730 ca         1 C70      -0.000000
      9 C9          -3.1950     1.4660     1.6330 ca         1 C70      -0.000000
     10 C10         -2.3830     0.9650     2.6910 ca         1 C70      -0.000000
     11 C11         -2.3280    -0.4320     2.9740 ca         1 C70      -0.000000
     12 C12         -2.9950    -1.2440     2.0850 ca         1 C70      -0.000000
     13 C13         -2.1990    -2.3230     1.9100 ca         1 C70      -0.000000
     14 C14         -2.1780    -2.9600     0.6420 ca         1 C70      -0.000000
     15 C15         -2.9160    -2.4430    -0.4090 ca         1 C70      -0.000000
     16 C16         -2.1850    -2.5570    -1.5160 ca         1 C70      -0.000000
     17 C17         -2.2980    -1.6590    -2.4800 ca         1 C70      -0.000000
     18 C18         -3.1550    -0.5600    -2.3530 ca         1 C70      -0.000000
     19 C19         -2.4620     0.5730    -2.9250 ca         1 C70      -0.000000
     20 C20         -2.5440     1.8200    -2.2510 ca         1 C70      -0.000000
     21 C21         -1.0720    -1.2630    -3.1020 ca         1 C70      -0.000000
     22 C22         -1.2110     0.1360    -3.3360 ca         1 C70      -0.000000
     23 C23         -1.4130     3.1960    -0.8570 ca         1 C70      -0.000000
     24 C24         -1.3770     2.5310    -2.1150 ca         1 C70      -0.000000
     25 C25         -0.9850    -3.2230    -1.1820 ca         1 C70      -0.000000
     26 C26         -0.9760    -3.4070     0.1620 ca         1 C70      -0.000000
     27 C27         -1.0240    -2.1990     2.6380 ca         1 C70      -0.000000
     28 C28         -1.1090    -1.0110     3.2310 ca         1 C70      -0.000000
     29 C29         -1.3240     1.8520     2.8890 ca         1 C70      -0.000000
     30 C30         -1.4080     2.7880     1.9150 ca         1 C70      -0.000000
     31 C31         -0.2070     3.2430     1.2280 ca         1 C70      -0.000000
     32 C32         -0.1960     3.4610    -0.1470 ca         1 C70      -0.000000
     33 C33         -0.1470     2.0870    -2.6290 ca         1 C70      -0.000000
     34 C34         -0.0670     0.8910    -3.3010 ca         1 C70      -0.000000
     35 C35          0.1720    -1.8900    -2.8050 ca         1 C70      -0.000000
     36 C36          0.1700    -2.9040    -1.8430 ca         1 C70      -0.000000
     37 C37          0.1620    -2.7300     2.1940 ca         1 C70      -0.000000
     38 C38          0.1890    -3.3030     0.9400 ca         1 C70      -0.000000
     39 C39         -0.0930     1.2830     3.2680 ca         1 C70      -0.000000
     40 C40         -0.0080    -0.1300     3.4230 ca         1 C70      -0.000000
     41 C41          1.0080     2.8790     1.8280 ca         1 C70      -0.000000
     42 C42          1.0600     1.9290     2.8530 ca         1 C70      -0.000000
     43 C43          1.0390     2.6620    -2.1190 ca         1 C70      -0.000000
     44 C44          0.9820     3.3350    -0.8950 ca         1 C70      -0.000000
     45 C45          1.1800     0.2050    -3.3560 ca         1 C70      -0.000000
     46 C46          1.2690    -1.1260    -3.1540 ca         1 C70      -0.000000
     47 C47          1.1710    -0.7780     3.1550 ca         1 C70      -0.000000
     48 C48          1.3290    -2.0510     2.6340 ca         1 C70      -0.000000
     49 C49          1.4090    -3.2920     0.2190 ca         1 C70      -0.000000
     50 C50          1.3940    -3.0960    -1.1880 ca         1 C70      -0.000000
     51 C51          2.5410    -2.4060    -1.5270 ca         1 C70      -0.000000
     52 C52          2.4970    -1.4060    -2.5150 ca         1 C70      -0.000000
     53 C53          2.2780     0.7750    -2.8020 ca         1 C70      -0.000000
     54 C54          2.2510     2.0250    -2.2640 ca         1 C70      -0.000000
     55 C55          2.2470     3.0330    -0.2960 ca         1 C70      -0.000000
     56 C56          2.2250     2.7760     1.1110 ca         1 C70      -0.000000
     57 C57          2.2660     1.2500     2.7110 ca         1 C70      -0.000000
     58 C58          2.3450    -0.1470     2.8700 ca         1 C70      -0.000000
     59 C59          2.5690    -2.7400     0.6900 ca         1 C70      -0.000000
     60 C60          2.4780    -2.0750     1.9040 ca         1 C70      -0.000000
     61 C61          2.9990     1.7900     1.6670 ca         1 C70      -0.000000
     62 C62          3.1790    -0.9060     2.1050 ca         1 C70      -0.000000
     63 C63          3.2640    -2.2290    -0.3700 ca         1 C70      -0.000000
     64 C64          3.1680    -0.2060    -2.3860 ca         1 C70      -0.000000
     65 C65          3.0530     2.2640    -1.1370 ca         1 C70      -0.000000
     66 C66          3.9150     0.0270    -1.1570 ca         1 C70      -0.000000
     67 C67          3.8610     1.2960    -0.5820 ca         1 C70      -0.000000
     68 C68          3.8240     1.0560     0.8370 ca         1 C70      -0.000000
     69 C69          3.9230    -0.9880    -0.1820 ca         1 C70      -0.000000
     70 C70          3.9000    -0.3170     1.0540 ca         1 C70      -0.000000
@<TRIPOS>BOND
     1     1     2 ar  
     2     1     5 ar  
     3     1    18 ar  
     4     2     3 ar  
     5     2     6 ar  
     6     3     4 ar  
     7     3     9 ar  
     8     4     5 ar  
     9     4    12 ar  
    10     5    15 ar  
    11     6     7 ar  
    12     6    20 ar  
    13     7     8 ar  
    14     7    23 ar  
    15     8     9 ar  
    16     8    30 ar  
    17     9    10 ar  
    18    10    11 ar  
    19    10    29 ar  
    20    11    12 ar  
    21    11    28 ar  
    22    12    13 ar  
    23    13    14 ar  
    24    13    27 ar  
    25    14    15 ar  
    26    14    26 ar  
    27    15    16 ar  
    28    16    17 ar  
    29    16    25 ar  
    30    17    18 ar  
    31    17    21 ar  
    32    18    19 ar  
    33    19    20 ar  
    34    19    22 ar  
    35    20    24 ar  
    36    21    22 ar  
    37    21    35 ar  
    38    22    34 ar  
    39    23    24 ar  
    40    23    32 ar  
    41    24    33 ar  
    42    25    26 ar  
    43    25    36 ar  
    44    26    38 ar  
    45    27    28 ar  
    46    27    37 ar  
    47    28    40 ar  
    48    29    30 ar  
    49    29    39 ar  
    50    30    31 ar  
    51    31    32 ar  
    52    31    41 ar  
    53    32    44 ar  
    54    33    34 ar  
    55    33    43 ar  
    56    34    45 ar  
    57    35    36 ar  
    58    35    46 ar  
    59    36    50 ar  
    60    37    38 ar  
    61    37    48 ar  
    62    38    49 ar  
    63    39    40 ar  
    64    39    42 ar  
    65    40    47 ar  
    66    41    42 ar  
    67    41    56 ar  
    68    42    57 ar  
    69    43    44 ar  
    70    43    54 ar  
    71    44    55 ar  
    72    45    46 ar  
    73    45    53 ar  
    74    46    52 ar  
    75    47    48 ar  
    76    47    58 ar  
    77    48    60 ar  
    78    49    50 ar  
    79    49    59 ar  
    80    50    51 ar  
    81    51    52 ar  
    82    51    63 ar  
    83    52    64 ar  
    84    53    54 ar  
    85    53    64 ar  
    86    54    65 ar  
    87    55    56 ar  
    88    55    65 ar  
    89    56    61 ar  
    90    57    58 ar  
    91    57    61 ar  
    92    58    62 ar  
    93    59    60 ar  
    94    59    63 ar  
    95    60    62 ar  
    96    61    68 ar  
    97    62    70 ar  
    98    63    69 ar  
    99    64    66 ar  
   100    65    67 ar  
   101    66    67 ar  
   102    66    69 ar  
   103    67    68 ar  
   104    68    70 ar  
   105    69    70 ar  
@<TRIPOS>SUBSTRUCTURE
     1 C70         1 TEMP              0 ****  ****    0 ROOT
